Version 4
SHEET 1 1060 680
WIRE 80 -32 -304 -32
WIRE 192 -32 80 -32
WIRE 192 0 192 -32
WIRE 192 0 176 0
WIRE 352 0 192 0
WIRE -304 16 -304 -32
WIRE 352 64 176 64
WIRE 176 112 176 64
WIRE 80 144 80 -32
WIRE 176 160 176 112
WIRE -304 192 -304 96
WIRE 176 272 176 240
WIRE 304 272 176 272
WIRE 80 336 80 224
WIRE 128 336 80 336
WIRE 592 336 128 336
WIRE 592 352 592 336
WIRE 864 352 752 352
WIRE 944 352 864 352
WIRE 128 416 128 400
WIRE 304 448 304 272
WIRE 448 448 304 448
WIRE 304 496 304 448
WIRE 592 496 592 416
WIRE 688 496 688 400
WIRE 688 496 592 496
WIRE 128 544 128 416
WIRE 176 544 128 544
WIRE 240 544 176 544
WIRE 448 576 448 448
WIRE 752 576 752 448
WIRE 752 576 448 576
WIRE 304 640 304 592
WIRE 944 640 944 432
WIRE 944 640 304 640
WIRE 304 656 304 640
FLAG 304 656 0
FLAG 176 0 v_cmd
FLAG 128 416 v_zen1
FLAG 176 544 v_b
FLAG -304 192 0
FLAG 176 112 v_led
FLAG 864 352 v_5v
SYMBOL res 192 256 R180
WINDOW 0 36 76 Left 2
WINDOW 3 36 40 Left 2
SYMATTR InstName R1
SYMATTR Value 150
SYMATTR SpiceLine tol=1 pwr=0.1
SYMBOL LED 160 0 R0
SYMATTR InstName D1
SYMATTR Value QTLP690C
SYMBOL voltage -304 0 R0
WINDOW 3 24 44 Left 2
WINDOW 123 0 0 Left 2
WINDOW 39 24 72 Left 2
SYMATTR Value SINE(2.5 2.5 10 0 0 0 5)
SYMATTR SpiceLine Rser=0
SYMATTR InstName V1
SYMBOL npn 240 496 R0
SYMATTR InstName Q2
SYMBOL zener 144 400 R180
WINDOW 0 100 73 Left 2
WINDOW 3 24 0 Left 2
SYMATTR InstName D2
SYMATTR Value 1N750
SYMBOL LED 368 64 R180
WINDOW 0 24 64 Left 2
WINDOW 3 24 0 Left 2
SYMATTR InstName D3
SYMATTR Value QTLP690C
SYMBOL zener 576 352 R0
SYMATTR InstName D4
SYMATTR Value 1N750
SYMBOL pnp 688 448 M180
SYMATTR InstName Q1
SYMBOL voltage 944 336 R0
WINDOW 123 0 0 Left 2
WINDOW 39 24 124 Left 2
SYMATTR SpiceLine Rser=0
SYMATTR InstName V2
SYMATTR Value 5
SYMBOL res 64 128 R0
SYMATTR InstName R4
SYMATTR Value 1k
TEXT -64 280 Left 2 !;op
TEXT 392 280 Left 2 !.tran 0 .5 0 .001 startup
